Version 4
SHEET 1 1064 680
WIRE 512 -368 448 -368
WIRE 512 -256 512 -368
WIRE 512 -256 496 -256
WIRE 544 -256 512 -256
WIRE 640 -256 624 -256
WIRE 288 -240 208 -240
WIRE 384 -240 384 -368
WIRE 384 -240 368 -240
WIRE 432 -240 384 -240
WIRE 512 -224 496 -224
WIRE 208 -176 208 -240
WIRE 224 -176 208 -176
WIRE 304 -176 288 -176
WIRE 512 -176 512 -224
WIRE 208 -96 208 -176
WIRE 224 -96 208 -96
WIRE 304 -96 304 -176
WIRE 496 -96 480 -96
WIRE 640 -96 640 -256
WIRE 640 -96 576 -96
WIRE 304 16 304 -96
WIRE 352 16 304 16
WIRE 480 16 480 -96
WIRE 480 16 432 16
WIRE 528 16 480 16
WIRE 640 32 640 -96
WIRE 640 32 592 32
WIRE 688 32 640 32
WIRE 208 48 208 -96
WIRE 208 48 160 48
WIRE 224 48 208 48
WIRE 528 48 480 48
WIRE 304 64 304 16
WIRE 304 64 288 64
WIRE 224 80 192 80
WIRE -256 112 -256 96
WIRE -160 112 -160 96
WIRE -64 112 -64 96
WIRE 192 112 192 80
WIRE 480 112 480 48
FLAG -64 192 0
FLAG 688 32 Vout
FLAG -64 96 Vin
FLAG -160 192 0
FLAG -256 192 0
FLAG -256 96 Vss+
FLAG -160 96 Vss-
FLAG 256 96 Vss-
FLAG 256 32 Vss+
FLAG 464 -272 Vss+
FLAG 464 -208 Vss-
FLAG 560 64 Vss-
FLAG 560 0 Vss+
FLAG 80 48 Vin
FLAG 192 112 0
FLAG 480 112 0
FLAG 512 -176 0
SYMBOL res 176 32 R90
WINDOW 0 0 56 VBottom 2
WINDOW 3 32 56 VTop 2
SYMATTR InstName R1
SYMATTR Value 60k
SYMBOL res 320 -112 R90
WINDOW 0 0 56 VBottom 2
WINDOW 3 32 56 VTop 2
SYMATTR InstName R2
SYMATTR Value 600k
SYMBOL res 448 0 R90
WINDOW 0 0 56 VBottom 2
WINDOW 3 32 56 VTop 2
SYMATTR InstName R4
SYMATTR Value 24k
SYMBOL res 384 -256 R90
WINDOW 0 0 56 VBottom 2
WINDOW 3 32 56 VTop 2
SYMATTR InstName R3
SYMATTR Value 24k
SYMBOL OpAmps\\UniversalOpAmp 464 -240 M0
SYMATTR InstName U2
SYMBOL voltage -64 96 R0
WINDOW 123 24 99 Left 2
WINDOW 39 0 0 Left 0
SYMATTR Value2 AC 1
SYMATTR InstName V1
SYMATTR Value ""
SYMBOL voltage -160 96 R0
WINDOW 123 0 0 Left 0
WINDOW 39 0 0 Left 0
SYMATTR InstName V2
SYMATTR Value -15v
SYMBOL voltage -256 96 R0
WINDOW 123 0 0 Left 0
WINDOW 39 0 0 Left 0
SYMATTR InstName V3
SYMATTR Value 15v
SYMBOL cap 448 -384 R90
WINDOW 0 0 32 VBottom 2
WINDOW 3 32 32 VTop 2
SYMATTR InstName C2
SYMATTR Value 663.146n
SYMBOL OpAmps\\UniversalOpAmp 256 64 R0
SYMATTR InstName U1
SYMBOL res 592 -112 R90
WINDOW 0 0 56 VBottom 2
WINDOW 3 32 56 VTop 2
SYMATTR InstName R5
SYMATTR Value 24k
SYMBOL OpAmps\\UniversalOpAmp 560 32 R0
SYMATTR InstName U3
SYMBOL cap 288 -192 R90
WINDOW 0 0 32 VBottom 2
WINDOW 3 32 32 VTop 2
SYMATTR InstName C1
SYMATTR Value 663.146n
SYMBOL res 640 -272 R90
WINDOW 0 0 56 VBottom 2
WINDOW 3 32 56 VTop 2
SYMATTR InstName R6
SYMATTR Value 24k
TEXT 120 192 Left 2 !.ac dec 100 250 1k
TEXT 112 232 Left 2 !.meas AC find frequency when mag(v(vout)/v(vin))=0.707
TEXT 376 192 Left 2 !.meas ac fcenter when mag(V(vout)/V(vin))=max
