Version 4
SHEET 1 880 680
WIRE 208 -32 96 -32
WIRE 448 -32 272 -32
WIRE 0 96 -64 96
WIRE 96 96 96 -32
WIRE 96 96 80 96
WIRE 112 96 96 96
WIRE 208 96 192 96
WIRE 304 96 208 96
WIRE -256 112 -256 96
WIRE -160 112 -160 96
WIRE 448 112 448 -32
WIRE 448 112 368 112
WIRE 480 112 448 112
WIRE -64 128 -64 96
WIRE 304 128 288 128
WIRE 208 176 208 96
WIRE 288 192 288 128
WIRE 368 192 288 192
WIRE 448 192 448 112
WIRE 288 240 288 192
FLAG 208 240 0
FLAG 288 320 0
FLAG -64 208 0
FLAG 480 112 Vout
FLAG -64 96 Vin
FLAG -160 192 0
FLAG -256 192 0
FLAG -256 96 Vss+
FLAG -160 96 Vss-
FLAG 336 80 Vss-
FLAG 336 144 Vss+
SYMBOL res 96 80 R90
WINDOW 0 0 56 VBottom 2
WINDOW 3 32 56 VTop 2
SYMATTR InstName R1
SYMATTR Value 7k
SYMBOL res 208 80 R90
WINDOW 0 0 56 VBottom 2
WINDOW 3 32 56 VTop 2
SYMATTR InstName R2
SYMATTR Value 40k
SYMBOL cap 272 -48 R90
WINDOW 0 0 32 VBottom 2
WINDOW 3 32 32 VTop 2
SYMATTR InstName C1
SYMATTR Value 0.68µ
SYMBOL cap 192 176 R0
SYMATTR InstName C2
SYMATTR Value 1.36µ
SYMBOL res 272 224 R0
SYMATTR InstName RB
SYMATTR Value 54k
SYMBOL res 464 176 R90
WINDOW 0 0 56 VBottom 2
WINDOW 3 32 56 VTop 2
SYMATTR InstName RA
SYMATTR Value 600k
SYMBOL OpAmps\\UniversalOpAmp 336 112 M180
SYMATTR InstName U2
SYMBOL voltage -64 112 R0
WINDOW 123 24 124 Left 2
WINDOW 39 0 0 Left 0
SYMATTR Value2 AC 1
SYMATTR InstName V1
SYMATTR Value ""
SYMBOL voltage -160 96 R0
WINDOW 123 0 0 Left 0
WINDOW 39 0 0 Left 0
SYMATTR InstName V2
SYMATTR Value -15v
SYMBOL voltage -256 96 R0
WINDOW 123 0 0 Left 0
WINDOW 39 0 0 Left 0
SYMATTR InstName V3
SYMATTR Value 15v
TEXT -56 296 Left 2 !.ac dec 100 1 100
TEXT -64 352 Left 2 !.meas AC find frequency when mag(v(vout)/v(vin))=0.707
