Version 4
SHEET 1 880 680
WIRE 64 112 -48 112
WIRE 64 144 64 112
WIRE 64 240 64 224
WIRE 160 240 64 240
WIRE 64 256 64 240
FLAG 64 320 0
FLAG -48 192 0
FLAG 160 240 Vout
FLAG -48 112 Vin
SYMBOL res 48 128 R0
SYMATTR InstName R1
SYMATTR Value 10k
SYMBOL voltage -48 96 R0
WINDOW 123 24 124 Left 2
WINDOW 39 0 0 Left 0
SYMATTR InstName V1
SYMATTR Value ""
SYMATTR Value2 AC 1
SYMBOL cap 48 256 R0
SYMATTR InstName C1
SYMATTR Value {C}
TEXT -104 368 Left 2 !.ac dec 100 1 1Meg
TEXT -104 400 Left 2 !.step param C list 100p 1n 10n 100n
TEXT -104 432 Left 2 !.meas AC find frequency when mag(v(vout)/v(vin))=0.707
